Version 4
SHEET 1 880 680
WIRE 0 48 -128 48
WIRE 80 48 0 48
WIRE 192 48 160 48
WIRE 192 64 192 48
WIRE 0 128 -128 128
WIRE 80 128 0 128
WIRE 192 128 160 128
FLAG 0 208 0
FLAG 0 -32 0
SYMBOL res -16 32 R0
SYMATTR InstName R1
SYMATTR Value 50
SYMBOL res 176 32 R90
WINDOW 0 0 56 VBottom 2
WINDOW 3 32 56 VTop 2
SYMATTR InstName R2
SYMATTR Value 4700R
SYMBOL res 176 112 R90
WINDOW 0 0 56 VBottom 2
WINDOW 3 32 56 VTop 2
SYMATTR InstName R3
SYMATTR Value 4700R
SYMBOL cap 176 64 R0
SYMATTR InstName C1
SYMATTR Value 680pC
SYMBOL voltage -128 32 R0
WINDOW 3 -138 58 Left 2
WINDOW 123 -137 23 Left 2
WINDOW 39 0 0 Left 2
SYMATTR InstName V1
SYMATTR Value SINE(0)
SYMATTR Value2 AC 1 0
SYMBOL res -16 -48 R0
SYMATTR InstName R4
SYMATTR Value 1e6
SYMBOL res -16 112 R0
SYMATTR InstName R5
SYMATTR Value 1e6
TEXT -162 232 Left 2 !.ac oct 10 1 100000
